
     RDKit          3D

 18 18  0  0  0  0  0  0  0  0999 V2000
    1.2368   -1.7921    0.6844 O   0  0  0  0  0  0  0  0  0  0  0  0
    1.1769   -0.7249    0.0845 C   0  0  0  0  0  0  0  0  0  0  0  0
    0.1521   -0.4015   -0.7740 N   0  0  0  0  0  0  0  0  0  0  0  0
   -0.9279   -1.3412   -1.0727 C   0  0  1  0  0  0  0  0  0  0  0  0
   -1.9415   -1.4710    0.0778 C   0  0  0  0  0  0  0  0  0  0  0  0
   -2.4321   -0.1596    0.7314 C   0  0  0  0  0  0  0  0  0  0  0  0
   -3.3479   -0.4935    1.9145 C   0  0  0  0  0  0  0  0  0  0  0  0
   -3.1696    0.7633   -0.2370 C   0  0  0  0  0  0  0  0  0  0  0  0
   -1.5688   -0.9488   -2.4041 C   0  0  0  0  0  0  0  0  0  0  0  0
   -2.5492   -1.7800   -2.8055 O   0  0  0  0  0  0  0  0  0  0  0  0
   -1.2384    0.0007   -3.1022 O   0  0  0  0  0  0  0  0  0  0  0  0
    2.2625    0.2829    0.2377 C   0  0  0  0  0  0  0  0  0  0  0  0
    3.5237   -0.1658    0.6525 C   0  0  0  0  0  0  0  0  0  0  0  0
    4.5596    0.7493    0.8084 C   0  0  0  0  0  0  0  0  0  0  0  0
    5.8024    0.3533    1.2057 O   0  0  0  0  0  0  0  0  0  0  0  0
    4.3591    2.1032    0.5645 C   0  0  0  0  0  0  0  0  0  0  0  0
    3.1016    2.5565    0.1679 C   0  0  0  0  0  0  0  0  0  0  0  0
    2.0503    1.6501    0.0079 C   0  0  0  0  0  0  0  0  0  0  0  0
  1  2  2  0
  2  3  1  0
  3  4  1  0
  4  5  1  1
  5  6  1  0
  6  7  1  0
  6  8  1  0
  4  9  1  0
  9 10  1  0
  9 11  2  0
  2 12  1  0
 12 13  2  0
 13 14  1  0
 14 15  1  0
 14 16  2  0
 16 17  1  0
 17 18  2  0
 18 12  1  0
M  END
